# Packages (lines beginning "#" are comments)
 &PACKAGES
 useGMRedi=.TRUE.,
 useDIAGNOSTICS=.TRUE.,
#useMNC=.TRUE.,
 &
